[TITLE]


[OPTIONS]
;;Options            Value
;;------------------ ------------
FLOW_UNITS           CMS
INFILTRATION         GREEN_AMPT
FLOW_ROUTING         DYNWAVE
START_DATE           08/07/2015
START_TIME           00:00:00
REPORT_START_DATE    08/07/2015
REPORT_START_TIME    00:00:00
END_DATE             08/07/2015
END_TIME             03:00:00
SWEEP_START          01/01
SWEEP_END            12/31
DRY_DAYS             0
REPORT_STEP          00:01:00
WET_STEP             00:05:00
DRY_STEP             00:05:00
ROUTING_STEP         5
ALLOW_PONDING        NO
INERTIAL_DAMPING     PARTIAL
VARIABLE_STEP        0.75
LENGTHENING_STEP     0
MIN_SURFAREA         0
NORMAL_FLOW_LIMITED  BOTH
SKIP_STEADY_STATE    NO
FORCE_MAIN_EQUATION  H-W
LINK_OFFSETS         DEPTH
MIN_SLOPE            0
MAX_TRIALS           8
HEAD_TOLERANCE       0.0015
SYS_FLOW_TOL         5
LAT_FLOW_TOL         5
MINIMUM_STEP         0.1
THREADS              4

[EVAPORATION]
;;Type          Parameters
;;------------- ----------
CONSTANT     3.8
DRY_ONLY     NO

[RAINGAGES]
;;               Rain      Time   Snow   Data      
;;Name           Type      Intrvl Catch  Source    
;;-------------- --------- ------ ------ ----------
30year           VOLUME    0:05   1.0    TIMESERIES 30year          
Rain_5Y          VOLUME    0:05   1.0    TIMESERIES Hebi_5Y_2Hr_5Min
Rain25mm         VOLUME    0:05   1.0    TIMESERIES Hebi_25mm_2Hr   
Raing_30Y        VOLUME    0:10   1.0    TIMESERIES hebi_30y_24hrs_10min

[SUBCATCHMENTS]
;;                                                 Total    Pcnt.             Pcnt.    Curb     Snow    
;;Name           Raingage         Outlet           Area     Imperv   Width    Slope    Length   Pack    
;;-------------- ---------------- ---------------- -------- -------- -------- -------- -------- --------
1                Rain_30Y_3Hr_Chicago J544R        132.8986 35.43    13376.136 0.5     0                        
1S2314_1         Rain_30Y_3Hr_Chicago 16F24        0.5005   13.339   95.437   0.5      0                        
1S2316           Rain_30Y_3Hr_Chicago 16F24        0.477    21.495   69.065   0.5      0                        
1S2321           Rain_30Y_3Hr_Chicago 16F27        1.6224   22.274   127.373  0.5      0                        
1S2322           Rain_30Y_3Hr_Chicago J136         1.7744   1.716    133.207  0.5      0                        
1S2323           Rain_30Y_3Hr_Chicago 16EC1        1.3146   30.643   114.656  0.5      0                        
1S2329           Rain_30Y_3Hr_Chicago 16F2A        0.2629   56.61    51.274   0.5      0                        
1S2330           Rain_30Y_3Hr_Chicago 16F4F        0.0132   70.25    11.489   0.5      0                        
1S2331           Rain_30Y_3Hr_Chicago 16EF3        0.3696   44.594   60.795   0.5      0                        
1S2332           Rain_30Y_3Hr_Chicago J140         2.2278   44.594   149.248  0.5      0                        
1S2333           Rain_30Y_3Hr_Chicago 1J3          0.1069   0.389    32.696   0.5      0                        
1S2335           Rain_30Y_3Hr_Chicago 16F29        0.1917   32.357   43.784   0.5      0                        
1S2336           Rain_30Y_3Hr_Chicago 16F2B        0.1982   57.908   44.52    0.5      0                        
1S2337           Rain_30Y_3Hr_Chicago 16F6F        0.2022   4.986    44.967   0.5      0                        
1S2352           Rain_30Y_3Hr_Chicago XJ173        6.4498   36.49    253.961  0.5      0                        
1S2353           Rain_30Y_3Hr_Chicago XJ173        5.2487   22.027   229.105  0.5      0                        
1S2355           Rain_30Y_3Hr_Chicago XJ52         0.5695   26.265   75.465   0.5      0                        
1S2356           Rain_30Y_3Hr_Chicago XJ52         0.5705   56.906   75.531   0.5      0                        
1S2358_1         Rain_30Y_3Hr_Chicago XJ651        0.2607   19.497   51.059   0.5      0                        
1S2358_2         Rain_30Y_3Hr_Chicago XJ66         0.4115   71.422   64.126   0.5      0                        
1S2360           Rain_30Y_3Hr_Chicago XJ57         0.5694   5.094    75.373   0.5      0                        
1S2361           Rain_30Y_3Hr_Chicago XJ57         0.0413   0.033    20.322   0.5      0                        
1S2364_1         Rain_30Y_3Hr_Chicago XJ67         0.2862   61.876   53.498   0.5      0                        
1S2364_2         Rain_30Y_3Hr_Chicago J297         0.3986   6.431    63.135   0.5      0                        
1S2366           Rain_30Y_3Hr_Chicago XJ186        2.6409   5        162.502  0.5      0                        
1S2371           Rain_30Y_3Hr_Chicago XJ173        3.6718   5        191.619  0.5      0                        
1S2374           Rain_30Y_3Hr_Chicago 16EFA        2.6503   5        162.797  0.5      0                        
1S2382           Rain_30Y_3Hr_Chicago J298         0.0943   5        30.708   0.5      0                        
1S2386           Rain_30Y_3Hr_Chicago XJ102        4.6612   25.965   215.898  0.5      0                        
1S2387           Rain_30Y_3Hr_Chicago XJ102        3.1264   18.747   176.811  0.5      0                        
1S2388           Rain_30Y_3Hr_Chicago J280         3.9026   10       197.545  0.5      0                        
1S24             Rain_30Y_3Hr_Chicago 16EF2        1.0818   79.447   29.997   0.5      0                        
1S25_1           Rain_30Y_3Hr_Chicago J273         1.4077   85       18.01    0.5      0                        
1S25_3           Rain_30Y_3Hr_Chicago J273         1.0536   85       15.397   0.5      0                        
1S25_4           Rain_30Y_3Hr_Chicago J273         0.9993   85       14.603   0.5      0                        
1S25_5           Rain_30Y_3Hr_Chicago J273         0.9368   85       11.988   0.5      0                        
1S2594           Rain_30Y_3Hr_Chicago XJ184        4.1121   3.016    202.783  0.5      0                        
1S2595_1         Rain_30Y_3Hr_Chicago XJ184        2.8511   22.023   168.852  0.5      0                        
1S2595_3         Rain_30Y_3Hr_Chicago XJ185        4.4596   17.097   211.17   0.5      0                        
1S2595_4         Rain_30Y_3Hr_Chicago XJOF10       4.8281   16.976   219.729  0.5      0                        
1S26             Rain_30Y_3Hr_Chicago 16F0E        1.3455   44.167   115.987  0.5      0                        
1S2600_1         Rain_30Y_3Hr_Chicago XJOF92       0.2774   67.132   52.669   0.5      0                        
1S2600_3         Rain_30Y_3Hr_Chicago XJOF93       0.2917   65       53.991   0.5      0                        
1S2600_4         Rain_30Y_3Hr_Chicago XJOF10       0.4273   5        65.368   0.5      0                        
1S2603           Rain_30Y_3Hr_Chicago XJ254_N      0.0774   13.839   27.821   0.5      0                        
1S2693_1         Rain_30Y_3Hr_Chicago 16F4F        1.133    63.995   30       0.5      0                        
1S2693_2         Rain_30Y_3Hr_Chicago J138         1.69     82.526   30       0.5      0                        
1S2694_1         Rain_30Y_3Hr_Chicago 16EC0        0.7419   85       30       0.5      0                        
1S2694_2         Rain_30Y_3Hr_Chicago 16EBF        0.7367   85       30       0.5      0                        
1S2696_1         Rain_30Y_3Hr_Chicago 16EC4        0.6978   85       30       0.5      0                        
1S2696_2         Rain_30Y_3Hr_Chicago 16EC5        0.7899   83.334   30       0.5      0                        
1S2698_1         Rain_30Y_3Hr_Chicago 16EBB        0.7629   85       30.008   0.5      0                        
1S2698_2         Rain_30Y_3Hr_Chicago 16EBA        1.0939   85       29.994   0.5      0                        
1S2698_3         Rain_30Y_3Hr_Chicago J289         0.9384   85       30       0.5      0                        
1S2698_4         Rain_30Y_3Hr_Chicago J288         0.9319   77.635   30       0.5      0                        
1S2698_6         Rain_30Y_3Hr_Chicago J112         1.0149   85       30       0.5      0                        
1S2698_7         Rain_30Y_3Hr_Chicago 16EAE        0.8348   71.832   30       0.5      0                        
1S2699_1         Rain_30Y_3Hr_Chicago 16E3D        0.8392   85       30       0.5      0                        
1S2699_2         Rain_30Y_3Hr_Chicago 16E3A        0.8965   85       30       0.5      0                        
1S2700_1         Rain_30Y_3Hr_Chicago 16F3F        0.9152   85       29.997   0.5      0                        
1S2700_2         Rain_30Y_3Hr_Chicago 16F40        1.157    81.673   30       0.5      0                        
1S2705_1         Rain_30Y_3Hr_Chicago J55          1.2108   70.473   29.996   0.5      0                        
1S2705_2         Rain_30Y_3Hr_Chicago 16E42        1.2928   82.043   30       0.5      0                        
1S2705_3         Rain_30Y_3Hr_Chicago 16E41        1.3905   83.587   30       0.5      0                        
1S2705_4         Rain_30Y_3Hr_Chicago J56          1.045    74.323   30       0.5      0                        
1S2705_6         Rain_30Y_3Hr_Chicago J78          1.3717   81.939   30       0.5      0                        
1S2705_7         Rain_30Y_3Hr_Chicago J59          1.4775   80.538   30       0.5      0                        
1S2705_8         Rain_30Y_3Hr_Chicago 16ECB        1.2082   75.789   30       0.5      0                        
1S2705_9         Rain_30Y_3Hr_Chicago 16ECA        1.5407   84.938   30       0.5      0                        
1S2706_1         Rain_30Y_3Hr_Chicago 16F6F        1.1352   70.727   29.997   0.5      0                        
1S2706_2         Rain_30Y_3Hr_Chicago 16F70        1.4381   79.214   30       0.5      0                        
1S2710_1         Rain_30Y_3Hr_Chicago 16EAC        1.0213   85       30.009   0.5      0                        
1S2710_2         Rain_30Y_3Hr_Chicago J104         0.8718   76.347   30       0.5      0                        
1S2710_3         Rain_30Y_3Hr_Chicago XJ52         0.4836   81.462   30       0.5      0                        
1S2710_5         Rain_30Y_3Hr_Chicago XJ51         0.5359   85       30       0.5      0                        
1S2710_6         Rain_30Y_3Hr_Chicago 16EC6        1.4217   85       29.992   0.5      0                        
1S2710_7         Rain_30Y_3Hr_Chicago 16EC7        1.2406   68.185   30       0.5      0                        
1S2710_8         Rain_30Y_3Hr_Chicago 16E4B        0.8322   82.267   29.992   0.5      0                        
1S2710_9         Rain_30Y_3Hr_Chicago J286         0.7398   77.564   30       0.5      0                        
1S2715_1         Rain_30Y_3Hr_Chicago 16F20        0.8117   77.823   30       0.5      0                        
1S2715_2         Rain_30Y_3Hr_Chicago 16F1F        1.002    80.902   30       0.5      0                        
1S2723_2         Rain_30Y_3Hr_Chicago 16E97        0.6179   85       30       0.5      0                        
1S2723_3         Rain_30Y_3Hr_Chicago 16E48        1.6386   74.923   30       0.5      0                        
1S2723_4         Rain_30Y_3Hr_Chicago 16E86        1.4276   81.604   30       0.5      0                        
1S2723_5         Rain_30Y_3Hr_Chicago 16E8E        1.3965   85       30       0.5      0                        
1S2724_1         Rain_30Y_3Hr_Chicago 1J2          0.4495   85       30       0.5      0                        
1S2724_2         Rain_30Y_3Hr_Chicago 16F2D        0.7742   85       30       0.5      0                        
1S2724_3         Rain_30Y_3Hr_Chicago 16EF4        0.7188   85       30       0.5      0                        
1S2724_4         Rain_30Y_3Hr_Chicago 16EF3        0.7799   85       30       0.5      0                        
1S2724_5         Rain_30Y_3Hr_Chicago 16F2B        0.8021   85       30.356   0.5      0                        
1S2724_7         Rain_30Y_3Hr_Chicago 16F2A        0.3681   85       30       0.5      0                        
1S2725_1         Rain_30Y_3Hr_Chicago 16EF9        0.5456   85       29.994   0.5      0                        
1S2725_3         Rain_30Y_3Hr_Chicago 16EFA        0.6823   83.235   30       0.5      0                        
1S2725_4         Rain_30Y_3Hr_Chicago J291         0.5662   85       30       0.5      0                        
1S2725_5         Rain_30Y_3Hr_Chicago 16EF7        0.4667   84.82    29.994   0.5      0                        
1S2726_1         Rain_30Y_3Hr_Chicago 16E6A        1.746    85       30       0.5      0                        
1S2726_2         Rain_30Y_3Hr_Chicago J296         1.5226   83.431   30.718   0.5      0                        
1S2726_3         Rain_30Y_3Hr_Chicago 16E36        2.7925   69.342   30       0.5      0                        
1S2726_4         Rain_30Y_3Hr_Chicago J296         1.5567   73.423   29.992   0.5      0                        
1S2726_5         Rain_30Y_3Hr_Chicago J252         2.256    80.908   30       0.5      0                        
1S2726_6         Rain_30Y_3Hr_Chicago 1738E        2.669    77.892   29.999   0.5      0                        
1S2726_8         Rain_30Y_3Hr_Chicago 16F14        0.8772   85       30.007   0.5      0                        
1S2730_1         Rain_30Y_3Hr_Chicago J108         0.952    85       30       0.5      0                        
1S2730_3         Rain_30Y_3Hr_Chicago 16F32        1.3487   85       30       0.5      0                        
1S2730_4         Rain_30Y_3Hr_Chicago 16F6E        1.6009   84.144   30       0.5      0                        
1S2730_5         Rain_30Y_3Hr_Chicago 16F6D        1.1405   85       30       0.5      0                        
1S2730_6         Rain_30Y_3Hr_Chicago 16F42        1.6154   85       29.996   0.5      0                        
1S2730_7         Rain_30Y_3Hr_Chicago 16F15        0.7914   85       30       0.5      0                        
1S2734_1         Rain_30Y_3Hr_Chicago 16F2E        0.7837   85       29.996   0.5      0                        
1S2734_2         Rain_30Y_3Hr_Chicago JB1          0.5712   85       29.99    0.5      0                        
1S2734_3         Rain_30Y_3Hr_Chicago 16F30        0.8319   85       30       0.5      0                        
1S2734_5         Rain_30Y_3Hr_Chicago 16F8B        0.4707   85       30       0.5      0                        
1S2734_6         Rain_30Y_3Hr_Chicago 16F34        0.867    85       29.994   0.5      0                        
1S2735           Rain_30Y_3Hr_Chicago 16F31        0.7869   85       30       0.5      0                        
1S2736_2         Rain_30Y_3Hr_Chicago 16F39        1.0183   84.087   30       0.5      0                        
1S2736_3         Rain_30Y_3Hr_Chicago J142         0.7142   81.798   30       0.5      0                        
1S2736_4         Rain_30Y_3Hr_Chicago 16F7C        1.8255   85       30       0.5      0                        
1S2736_5         Rain_30Y_3Hr_Chicago J141         1.4273   80.604   29.996   0.5      0                        
1S2736_6         Rain_30Y_3Hr_Chicago 16F3C        1.5892   81.485   30       0.5      0                        
1S2736_7         Rain_30Y_3Hr_Chicago 16F3D        1.2647   78.346   30       0.5      0                        
1S2737_2         Rain_30Y_3Hr_Chicago 16F68        1.0763   77.038   30       0.5      0                        
1S2737_4         Rain_30Y_3Hr_Chicago 16F67        1.2837   80.735   30       0.5      0                        
1S2737_5         Rain_30Y_3Hr_Chicago 16F19        2.3448   83.684   27.684   0.5      0                        
1S2737_6         Rain_30Y_3Hr_Chicago J109         1.5037   83.684   29.996   0.5      0                        
1S2737_7         Rain_30Y_3Hr_Chicago J113         1.1982   81.322   30       0.5      0                        
1S2737_8         Rain_30Y_3Hr_Chicago 16F56        1.016    80.568   29.994   0.5      0                        
1S2737_9         Rain_30Y_3Hr_Chicago 16F57        0.9989   85       30       0.5      0                        
1S2751_1         Rain_30Y_3Hr_Chicago J148         0.7004   85       30       0.5      0                        
1S2751_10        Rain_30Y_3Hr_Chicago J123         1.2378   85       30       0.5      0                        
1S2751_11        Rain_30Y_3Hr_Chicago J152         1.1463   85       30       0.5      0                        
1S2751_12        Rain_30Y_3Hr_Chicago J12          0.6279   85       30       0.5      0                        
1S2751_13        Rain_30Y_3Hr_Chicago J11          0.7387   82.778   29.992   0.5      0                        
1S2751_2         Rain_30Y_3Hr_Chicago 16F18        0.4559   84.472   29.993   0.5      0                        
1S2751_3         Rain_30Y_3Hr_Chicago 16F17        1.0907   79.984   30       0.5      0                        
1S2751_4         Rain_30Y_3Hr_Chicago J149         0.4812   84.52    30       0.5      0                        
1S2751_5         Rain_30Y_3Hr_Chicago J10          0.5255   85       30       0.5      0                        
1S2751_6         Rain_30Y_3Hr_Chicago J115         0.6561   85       30.005   0.5      0                        
1S2751_7         Rain_30Y_3Hr_Chicago J147         1.1059   85       29.994   0.5      0                        
1S2751_9         Rain_30Y_3Hr_Chicago J9           0.4559   80.831   30       0.5      0                        
1S2752_1         Rain_30Y_3Hr_Chicago 16FB1        0.6243   85       30       0.5      0                        
1S2752_2         Rain_30Y_3Hr_Chicago J269         0.6998   85       30       0.5      0                        
1S2754_1         Rain_30Y_3Hr_Chicago 16F98        0.5649   85       30       0.5      0                        
1S2754_2         Rain_30Y_3Hr_Chicago 16F97        0.6272   85       30       0.5      0                        
1S2755_1         Rain_30Y_3Hr_Chicago 16FAD        0.6024   85       30       0.5      0                        
1S2755_2         Rain_30Y_3Hr_Chicago 16FAC        0.6841   85       30       0.5      0                        
1S2768_1         Rain_30Y_3Hr_Chicago 16FC3        0.865    85       30       0.5      0                        
1S2768_10        Rain_30Y_3Hr_Chicago 16FD0        1.0457   82.466   29.997   0.5      0                        
1S2768_12        Rain_30Y_3Hr_Chicago 16FD1        0.5415   84.175   30       0.5      0                        
1S2768_13        Rain_30Y_3Hr_Chicago 16FD2        0.6764   85       30       0.5      0                        
1S2768_3         Rain_30Y_3Hr_Chicago 16FA1        1.4057   85       30       0.5      0                        
1S2768_4         Rain_30Y_3Hr_Chicago 16FC2        0.7486   82.692   30       0.5      0                        
1S2768_5         Rain_30Y_3Hr_Chicago 16FA2        0.794    85       29.992   0.5      0                        
1S2768_6         Rain_30Y_3Hr_Chicago J265         1.3501   85       30.002   0.5      0                        
1S2768_7         Rain_30Y_3Hr_Chicago 16FCF        0.7812   84.615   30       0.5      0                        
1S2768_8         Rain_30Y_3Hr_Chicago 16FA3        0.8397   83.274   30       0.5      0                        
1S2768_9         Rain_30Y_3Hr_Chicago 16FA4        1.1456   85       30       0.5      0                        
1S2777_1         Rain_30Y_3Hr_Chicago 16FB8        0.6873   85       30       0.5      0                        
1S2777_2         Rain_30Y_3Hr_Chicago 16FB9        0.783    85       30       0.5      0                        
1S2778_1         Rain_30Y_3Hr_Chicago 16FF0        0.9003   85       30       0.5      0                        
1S2778_2         Rain_30Y_3Hr_Chicago 16FEF        1.5788   85       29.998   0.5      0                        
1S2779           Rain_30Y_3Hr_Chicago 17001        0.9913   85       29.997   0.5      0                        
1S2780_1         Rain_30Y_3Hr_Chicago 17002        0.5418   85       29.989   0.5      0                        
1S2780_10        Rain_30Y_3Hr_Chicago 17001        0.4851   85       30.006   0.5      0                        
1S2780_11        Rain_30Y_3Hr_Chicago 17000        0.5128   85       30       0.5      0                        
1S2780_2         Rain_30Y_3Hr_Chicago 16FFF        0.7107   85       30.03    0.5      0                        
1S2780_3         Rain_30Y_3Hr_Chicago 17003        0.5178   85       30       0.5      0                        
1S2780_5         Rain_30Y_3Hr_Chicago J150         0.7077   80.664   30       0.5      0                        
1S2780_6         Rain_30Y_3Hr_Chicago 16FFB        0.6347   85       30       0.5      0                        
1S2780_7         Rain_30Y_3Hr_Chicago 16FFC        0.6661   85       29.825   0.5      0                        
1S2780_8         Rain_30Y_3Hr_Chicago 16FFE        0.591    85       30       0.5      0                        
1S2780_9         Rain_30Y_3Hr_Chicago 16FFD        0.5933   85       30.168   0.5      0                        
1S2782_1         Rain_30Y_3Hr_Chicago J275-1       1.6732   75       30.002   0.5      0                        
1S2782_3         Rain_30Y_3Hr_Chicago J276-1       0.9095   85       29.994   0.5      0                        
1S2782_4         Rain_30Y_3Hr_Chicago J276-1       1.0174   85       29.994   0.5      0                        
1S2784_1         Rain_30Y_3Hr_Chicago J121-1       3.3214   85       30.001   0.5      0                        
1S2784_3         Rain_30Y_3Hr_Chicago J1-1         2.4392   85       30       0.5      0                        
1S2784_4         Rain_30Y_3Hr_Chicago J275-1       3.2966   85       29.998   0.5      0                        
1S2786_1         Rain_30Y_3Hr_Chicago J1-1         0.8448   85       30       0.5      0                        
1S2786_2         Rain_30Y_3Hr_Chicago J1-1         1.0554   85       30       0.5      0                        
1S2788_1         Rain_30Y_3Hr_Chicago J1-1         1.2579   75       30       0.5      0                        
1S2788_3         Rain_30Y_3Hr_Chicago J1-1         1.1146   75       29.989   0.5      0                        
1S2788_4         Rain_30Y_3Hr_Chicago J1-1         0.9304   85       30.013   0.5      0                        
1S2788_5         Rain_30Y_3Hr_Chicago J1-1         0.7966   85       30.008   0.5      0                        
1S2790_1         Rain_30Y_3Hr_Chicago J1-1         1.3214   85       29.99    0.5      0                        
1S2790_3         Rain_30Y_3Hr_Chicago J1-1         1.145    83.652   30       0.5      0                        
1S2790_4         Rain_30Y_3Hr_Chicago J1-1         1.4212   85       30       0.5      0                        
1S2790_5         Rain_30Y_3Hr_Chicago J1-1         1.4872   85       30       0.5      0                        
1S2791_1         Rain_30Y_3Hr_Chicago J1-11        1.3408   85       30       0.5      0                        
1S2791_3         Rain_30Y_3Hr_Chicago J121-1       1.382    85       30       0.5      0                        
1S2791_4         Rain_30Y_3Hr_Chicago J1-11        0.5239   85       30       0.5      0                        
1S2791_5         Rain_30Y_3Hr_Chicago J1-11        0.6164   73.11    30       0.5      0                        
1S2792_1         Rain_30Y_3Hr_Chicago J1-1         0.9809   85       30       0.5      0                        
1S2792_2         Rain_30Y_3Hr_Chicago J1-1         1.2668   85       29.998   0.5      0                        
1S2794_1         Rain_30Y_3Hr_Chicago 16EF2        0.9463   85       29.997   0.5      0                        
1S2794_2         Rain_30Y_3Hr_Chicago 16E99        1.0046   85       30.006   0.5      0                        
1S2794_3         Rain_30Y_3Hr_Chicago 16E98        0.9679   85       29.994   0.5      0                        
1S2794_5         Rain_30Y_3Hr_Chicago 16EF1        1.354    85       30.002   0.5      0                        
1S2794_6         Rain_30Y_3Hr_Chicago 16EB4        0.8729   85       30       0.5      0                        
1S2794_7         Rain_30Y_3Hr_Chicago 16EB3        1.1255   85       29.994   0.5      0                        
1S2795_1         Rain_30Y_3Hr_Chicago J275-1       1.349    85       30       0.5      0                        
1S2795_2         Rain_30Y_3Hr_Chicago J276-1       1.3195   85       29.998   0.5      0                        
1S2856_3         Rain_30Y_3Hr_Chicago J278-1       0.7698   85       30       0.5      0                        
1S2856_4         Rain_30Y_3Hr_Chicago J278-1       0.6326   85       30       0.5      0                        
1S2860_1         Rain_30Y_3Hr_Chicago J50          0.7838   85       14.052   0.5      0                        
1S2860_3         Rain_30Y_3Hr_Chicago J280         0.7212   85       10.683   0.5      0                        
1S2860_4         Rain_30Y_3Hr_Chicago J280         1.3042   85       19.316   0.5      0                        
1S2860_5         Rain_30Y_3Hr_Chicago J50          0.8894   85       15.944   0.5      0                        
1S2862_1         Rain_30Y_3Hr_Chicago J280         1.3717   85       30       0.5      0                        
1S2862_2         Rain_30Y_3Hr_Chicago J280         1.455    85       30       0.5      0                        
1S2869_1         Rain_30Y_3Hr_Chicago 16FF2        1.1072   85       30       0.5      0                        
1S2869_10        Rain_30Y_3Hr_Chicago J20          0.6528   85       30       0.5      0                        
1S2869_11        Rain_30Y_3Hr_Chicago J19          0.6944   85       29.992   0.5      0                        
1S2869_2         Rain_30Y_3Hr_Chicago 16FF1        1.4036   85       30       0.5      0                        
1S2869_3         Rain_30Y_3Hr_Chicago 17024        0.9402   85       30.006   0.5      0                        
1S2869_4         Rain_30Y_3Hr_Chicago 1704C        0.6301   85       30       0.5      0                        
1S2869_6         Rain_30Y_3Hr_Chicago J268         0.7343   85       30       0.5      0                        
1S2869_7         Rain_30Y_3Hr_Chicago 1704D        0.5178   85       30       0.5      0                        
1S2869_8         Rain_30Y_3Hr_Chicago 17032        0.4668   85       29.987   0.5      0                        
1S2869_9         Rain_30Y_3Hr_Chicago 17033        0.3801   85       30       0.5      0                        
1S2870_1         Rain_30Y_3Hr_Chicago 172EF        0.743    85       30       0.5      0                        
1S2870_11        Rain_30Y_3Hr_Chicago J439         1.5651   85       30.004   0.5      0                        
1S2870_12        Rain_30Y_3Hr_Chicago J259         0.3482   85       30       0.5      0                        
1S2870_13        Rain_30Y_3Hr_Chicago 172F6        0.3913   85       30       0.5      0                        
1S2870_14        Rain_30Y_3Hr_Chicago J16          0.4173   85       29.986   0.5      0                        
1S2870_15        Rain_30Y_3Hr_Chicago J17          0.33     85       30       0.5      0                        
1S2870_16        Rain_30Y_3Hr_Chicago 1731A        0.5489   85       30.006   0.5      0                        
1S2870_17        Rain_30Y_3Hr_Chicago 1731B        1.2821   85       29.996   0.5      0                        
1S2870_2         Rain_30Y_3Hr_Chicago 172F0        0.6725   85       30       0.5      0                        
1S2870_3         Rain_30Y_3Hr_Chicago 172C7        0.6934   85       30       0.5      0                        
1S2870_5         Rain_30Y_3Hr_Chicago J257         0.3941   85       30       0.5      0                        
1S2870_6         Rain_30Y_3Hr_Chicago 172F5        0.7069   82.623   29.992   0.5      0                        
1S2870_7         Rain_30Y_3Hr_Chicago 172C6        0.3015   85       30       0.5      0                        
1S2870_8         Rain_30Y_3Hr_Chicago 172CC        0.4966   82.201   30       0.5      0                        
1S2870_9         Rain_30Y_3Hr_Chicago 172CD        0.6852   80.076   30       0.5      0                        
1S2996_1         Rain_30Y_3Hr_Chicago 16E38        1.2865   85       29.919   0.5      0                        
1S2996_3         Rain_30Y_3Hr_Chicago 16E3F        1.3953   79.567   30       0.5      0                        
1S2996_4         Rain_30Y_3Hr_Chicago 16E3E        1.4571   82.699   29.996   0.5      0                        
1S2996_5         Rain_30Y_3Hr_Chicago 16E38        0.8635   85       30.122   0.5      0                        
1S3010_1         Rain_30Y_3Hr_Chicago 16EC8        1.5902   85       30       0.5      0                        
1S3010_2         Rain_30Y_3Hr_Chicago 16E71        1.1521   85       30       0.5      0                        
1S3010_3         Rain_30Y_3Hr_Chicago 16EC9        1.3822   85       30       0.5      0                        
1S3010_5         Rain_30Y_3Hr_Chicago XJ54         1.0445   78.917   30       0.5      0                        
1S3013_1         Rain_30Y_3Hr_Chicago 16E89        0.7669   80.441   30       0.5      0                        
1S3013_2         Rain_30Y_3Hr_Chicago 16E8D        0.9496   83.198   30       0.5      0                        
1S3014_1         Rain_30Y_3Hr_Chicago 16EA8        0.8358   85       29.996   0.5      0                        
1S3014_2         Rain_30Y_3Hr_Chicago 16EA7        0.8518   85       30       0.5      0                        
1S3019_1         Rain_30Y_3Hr_Chicago 16F24        1.0834   85       30.006   0.5      0                        
1S3019_2         Rain_30Y_3Hr_Chicago 16F0E        0.9118   84.246   29.997   0.5      0                        
1S3019_3         Rain_30Y_3Hr_Chicago 16F26        1.2969   85       30       0.5      0                        